18
2oh_phe.log	Energy: -1738054.7718587
As         1.28079       -0.18779        0.00000
O          1.73075        0.79622        1.37084
H          2.46931        0.36641        1.81161
O          1.73081        0.79637       -1.37071
H          2.46912        0.36637       -1.81173
O          2.00411       -1.63088       -0.00010
C         -0.62196       -0.20613        0.00001
C         -1.38847        0.95743        0.00001
C         -1.23774       -1.45086        0.00000
C         -2.77454        0.85886       -0.00001
C         -2.61901       -1.54698        0.00000
H         -0.61842       -2.33850        0.00001
C         -3.37857       -0.38723       -0.00001
H         -3.37715        1.75896       -0.00002
H         -3.09665       -2.51567        0.00000
H         -4.45838       -0.44879       -0.00001
O         -0.73709        2.13748       -0.00002
H         -1.36091        2.86417       -0.00003
