19
3cl_bu.log	Energy: -1932969.4485633
As         1.67190        0.06250       -0.03235
O          2.57329       -1.27017       -0.71610
H          3.43202       -0.95321       -1.00890
O          1.67928       -0.26003        1.68831
H          2.26767        0.36308        2.12304
O          2.28742        1.50765       -0.39968
C         -0.12770       -0.38310       -0.51015
C         -1.11555        0.63687        0.04282
H         -0.32042       -1.38574       -0.13157
H         -0.14920       -0.41938       -1.59960
C         -2.54421        0.41895       -0.42853
H         -1.09344        0.62647        1.13390
H         -0.82172        1.64084       -0.27492
C         -3.48734        1.49626        0.06392
H         -2.57282        0.35593       -1.51495
H         -4.50290        1.31447       -0.28083
H         -3.49225        1.53481        1.15294
H         -3.16034        2.46597       -0.31509
Cl        -3.14296       -1.20230        0.12912
