16
3cl_pr.log	Energy: -1908295.0504711
As         1.49846       -0.06511        0.08368
O          2.66147        1.21504       -0.17089
H          3.46257        1.02050        0.32321
O          1.50807       -0.94825       -1.42769
H          1.90667       -1.81123       -1.28584
O          1.82789       -0.99563        1.35755
C         -0.15557        0.89615       -0.03949
C         -1.36025       -0.03980        0.03428
H         -0.11984        1.44908       -0.97855
H         -0.14612        1.61581        0.77935
C         -2.64855        0.75723       -0.03633
H         -1.33480       -0.61231        0.96184
H         -2.73604        1.44899        0.79803
H         -2.72203        1.31451       -0.96718
H         -1.32926       -0.75347       -0.78901
Cl        -4.08375       -0.31613        0.03379
