20
3me_phe.log	Energy: -1715520.9020139
As        -1.47127       -0.20906       -0.01251
O         -2.07892        0.75052       -1.33895
H         -2.95014        0.44147       -1.60051
O         -2.17401        0.61554        1.36584
H         -2.63277       -0.03601        1.90322
O         -1.85523       -1.77445       -0.04740
C          0.36929        0.27085       -0.00175
C          0.76797        1.60110        0.02891
C          1.29767       -0.75851       -0.02227
C          2.12137        1.88633        0.03544
C          2.66023       -0.47542       -0.01226
H          0.95354       -1.78547       -0.05068
C          3.05268        0.85764        0.01449
H          2.45510        2.91464        0.05386
H          0.03750        2.39788        0.04163
H          4.10867        1.09751        0.01629
C          3.67162       -1.58697       -0.00732
H          3.83165       -1.95660        1.00717
H          3.33582       -2.42776       -0.61284
H          4.63265       -1.24966       -0.39255
