17
4br_phe.log	Energy: -3305842.6248996
As        -2.57561        0.09579       -0.00970
O         -3.07396       -0.87376        1.36133
H         -3.63497       -0.33561        1.92670
O         -2.95744       -0.96606       -1.33994
H         -3.88073       -0.87588       -1.59002
O         -3.27348        1.54771       -0.02952
C         -0.67390        0.02306       -0.01059
C          0.00526       -1.18829        0.01945
C          0.01912        1.22453       -0.03430
C          1.38857       -1.19799        0.02415
H         -0.53647       -2.12385        0.03731
C          1.40484        1.21996       -0.02926
H         -0.52387        2.16020       -0.05839
C          2.07391        0.00796        0.00001
H          1.93005       -2.13202        0.04639
H          1.95612        2.14827       -0.04852
Br         3.96621       -0.00573        0.00728
