17
4cl_phe.log	Energy: -1979261.0282848
H          2.57148       -2.13280        0.05034
C          2.02565       -1.20132        0.02740
C          0.64285       -1.19077        0.02135
H          0.10040       -2.12590        0.03877
C         -0.03587        0.02105       -0.00952
As        -1.93697        0.09649       -0.01044
C          0.65817        1.22229       -0.03275
H          0.11549        2.15809       -0.05756
C          2.04338        1.21708       -0.02640
H          2.60009        2.14215       -0.04519
C          2.71083        0.00446        0.00360
Cl         4.44906       -0.00934        0.01232
O         -2.63169        1.54992       -0.03278
O         -2.32001       -0.96645       -1.33947
O         -2.43956       -0.87056        1.36089
H         -3.24358       -0.87706       -1.58870
H         -2.99791       -0.32981        1.92641
