23
2_naph.log	Energy: -1787255.1461527
C         -0.51006       -0.76464       -0.00124
C         -1.90054       -0.51938        0.00362
C          0.37035        0.28093       -0.01412
C         -2.36197        0.82110       -0.00338
C         -2.84357       -1.57463        0.01568
C         -0.07994        1.61850       -0.02127
C         -3.75628        1.06171        0.00193
C         -1.41917        1.87548       -0.01611
C         -4.18091       -1.30960        0.02061
H         -2.48428       -2.59557        0.02071
H          0.64396        2.42223       -0.03361
C         -4.64145        0.02410        0.01365
H         -4.10924        2.08486       -0.00371
H         -1.77683        2.89688       -0.02287
H         -4.89540       -2.12109        0.02973
H         -5.70498        0.22009        0.01748
As         2.24857       -0.02191       -0.01050
O          2.42387       -1.14999       -1.33162
H          3.35063       -1.25009       -1.56426
O          2.55852       -1.05978        1.36825
H          3.21724       -0.63296        1.92301
O          3.22452        1.26048       -0.03899
H         -0.15797       -1.78839        0.00279
