21
4meo_phe.log	Energy: -1762717.4575432
As        -1.95046        0.03971       -0.01281
O         -2.40358       -0.93236        1.37654
H         -2.99131       -0.40851        1.92775
O         -2.26529       -1.08130       -1.31527
H         -3.20437       -1.10602       -1.51592
O         -2.75881        1.43373       -0.06210
C         -0.05708        0.10524       -0.01364
C          0.71132       -1.04790        0.01382
C          0.55775        1.35462       -0.03409
C          2.09383       -0.96526        0.01998
H          0.23920       -2.02086        0.02779
C          1.93228        1.44440       -0.02756
H         -0.04852        2.25064       -0.05790
C          2.70870        0.28535       -0.00040
H          2.43158        2.40242       -0.04457
H          2.67682       -1.87298        0.04006
C          4.88449       -0.65790        0.02828
H          4.73399       -1.28596       -0.85321
H          5.90095       -0.27581        0.02618
H          4.72553       -1.25370        0.93044
O          4.04187        0.47357        0.00380
