19
4nh2_phe.log	Energy: -1725590.3400249
H          2.90016       -2.14408        0.07734
C          2.36975       -1.20116        0.04392
C          0.99186       -1.18854        0.03220
H          0.44963       -2.12422        0.04989
C          0.30605        0.02141       -0.00686
As        -1.58275        0.10004       -0.01705
C          1.01377        1.21716       -0.03224
H          0.47665        2.15618       -0.06508
C          2.39374        1.20688       -0.02042
H          2.94033        2.14089       -0.03825
C          3.09319       -0.00267        0.01680
N          4.46994       -0.01638        0.07626
O         -2.27989        1.55341       -0.06799
O         -1.97885       -0.99553       -1.32002
O         -2.13235       -0.83719        1.36311
H         -2.92415       -0.98556       -1.48996
H         -2.65218       -0.25792        1.92680
H          4.94343        0.81238       -0.23577
H          4.92565       -0.86838       -0.19712
