25
4no2_1naph.log	Energy: -1915582.5262238
C         -0.61671        3.10406        0.11047
C          0.21531        2.02566        0.06646
C         -0.30496        0.71108        0.02361
C         -1.71735        0.53205        0.01302
C         -2.55209        1.67356        0.06590
C         -2.01083        2.92421        0.11608
H         -0.20284        4.10197        0.14533
H          1.28485        2.17825        0.07094
C          0.52938       -0.43902       -0.00234
C         -2.19490       -0.80519       -0.00332
H         -3.62254        1.55178        0.05606
H         -2.66218        3.78593        0.15816
C         -1.37646       -1.89154        0.00569
C          0.01390       -1.70428       -0.00871
H         -1.80123       -2.88359        0.01785
H          0.67568       -2.55996       -0.02469
N         -3.64124       -1.09237       -0.04066
O         -4.33059       -0.42879       -0.78628
O         -4.04097       -1.99808        0.65751
As         2.44114       -0.37592       -0.02373
O          2.85641        0.61172        1.35675
H          3.62467        0.23252        1.79310
O          2.81918        0.67207       -1.36927
H          3.58381        0.32181       -1.83510
O          3.21335       -1.78947       -0.06307
