19
4no2_phe.log	Energy: -1819178.3530964
C         -1.78412       -1.20383        0.01649
C         -2.45447        0.00620        0.00150
C         -0.40156       -1.19304        0.01208
C         -1.80102        1.22262       -0.01836
C          0.27225        0.02215       -0.00857
C         -0.41594        1.22710       -0.02326
H         -2.37125        2.13824       -0.03008
H          0.13030        2.16061       -0.03991
N         -3.93279       -0.00413        0.00718
O         -4.49834        1.06694       -0.00513
O         -4.48309       -1.08329        0.02402
H         -2.34386       -2.12583        0.03143
H          0.14394       -2.12600        0.02308
As         2.18088        0.09541       -0.00787
O          2.87373        1.54868       -0.01610
O          2.55199       -0.95050       -1.35130
H          3.45885       -0.82176       -1.64201
O          2.65718       -0.88909        1.35671
H          3.23999       -0.37427        1.92201
