18
4oh_phe.log	Energy: -1738056.3770969
C          2.40561        1.19630        0.02496
C          1.02211        1.21045        0.03415
C          0.31770        0.01543        0.00884
C          0.99765       -1.19898       -0.02717
C          2.37617       -1.21727       -0.03618
C          3.08337       -0.01720       -0.01014
H          2.95816        2.12765        0.04610
H          0.48569        2.14984        0.06333
H          0.45074       -2.13171       -0.04578
H          2.92450       -2.14774       -0.06284
O          4.43187       -0.09530       -0.02062
H          4.80920        0.78540        0.00104
As        -1.57494        0.10176        0.01362
O         -2.26233        1.55980        0.04529
O         -1.97298       -0.97184        1.33203
H         -2.91223       -0.92940        1.52892
O         -2.11078       -0.85001       -1.35947
H         -2.64484       -0.28548       -1.92494
