20
benzyl.log	Energy: -1715521.9060918
As        -1.60643        0.00000        0.00030
O         -1.21285       -1.37955       -1.00134
H         -2.03197       -1.79653       -1.28241
O         -1.21284        1.37955       -1.00134
H         -2.03196        1.79652       -1.28242
O         -3.14375       -0.00000        0.48797
C         -0.17492        0.00000        1.29191
H         -0.34918        0.88183        1.90676
H         -0.34918       -0.88183        1.90676
C          1.19514        0.00000        0.67664
C          1.83630       -1.19838        0.38377
C          1.83630        1.19838        0.38377
C          3.09929       -1.19872       -0.18421
H          1.33825       -2.13588        0.59371
C          3.09929        1.19872       -0.18421
H          1.33825        2.13589        0.59371
C          3.73480       -0.00000       -0.46860
H          3.58744       -2.13790       -0.40570
H          3.58744        2.13789       -0.40570
H          4.72136       -0.00000       -0.91128
