19
but.log	Energy: -1644553.3175626
As        -0.95483       -0.71796        0.00000
O         -0.17330       -1.46943        1.37705
H         -0.79069       -2.08027        1.78821
O         -0.17330       -1.46943       -1.37705
H         -0.79069       -2.08027       -1.78821
O         -2.55309       -0.93101        0.00000
C         -0.17330        1.03132        0.00000
H         -0.57366        1.53376       -0.88123
H         -0.57366        1.53376        0.88123
C          1.35311        1.01997        0.00000
H          1.71468        0.47776        0.87570
H          1.71468        0.47776       -0.87570
C          1.92857        2.43263        0.00000
H          1.55793        2.97286       -0.87510
H          1.55793        2.97286        0.87510
C          3.45144        2.43824        0.00000
H          3.84385        1.92788        0.88087
H          3.84385        1.92788       -0.88087
H          3.84353        3.45491        0.00000
