25
2-4meo_phe.log	Energy: -1834587.3712560
As        -1.94491       -0.50307        0.00017
O         -2.52394        0.41823       -1.36878
H         -3.19849       -0.10855       -1.80682
O         -2.52120        0.41753        1.37047
H         -3.20706       -0.10132        1.80031
O         -2.49745       -2.02104       -0.00117
C         -0.06184       -0.29948        0.00037
C          0.56301        0.95551        0.00011
C          0.70469       -1.44899        0.00036
C          1.94296        1.03121       -0.00008
C          2.09040       -1.38853        0.00015
H          0.20505       -2.40921        0.00046
C          2.70328       -0.14083       -0.00010
H          2.46591        1.97462       -0.00012
H          2.66462       -2.30086        0.00011
O          4.03648        0.04914       -0.00030
C          4.87768       -1.08410       -0.00006
H          5.89474       -0.70331       -0.00033
H          4.72120       -1.69529        0.89185
H          4.72104       -1.69586       -0.89156
O         -0.25609        2.01794        0.00019
C          0.30197        3.31273       -0.00075
H          0.90922        3.48171        0.89155
H          0.90920        3.48041       -0.89331
H         -0.53858        3.99955       -0.00123
