13
eth.log	Energy: -1595210.8395450
As         0.39535        0.00000        0.09469
O          0.29156        1.37659       -0.98485
H          1.15699        1.78974       -1.04513
O          0.29156       -1.37659       -0.98485
H          1.15699       -1.78974       -1.04513
O          1.74383       -0.00000        0.97830
C         -1.34035        0.00000        0.90985
H         -1.36127       -0.88058        1.55096
H         -1.36127        0.88058        1.55096
C         -2.48156       -0.00000       -0.10178
H         -2.44292        0.88218       -0.73814
H         -2.44292       -0.88218       -0.73814
H         -3.43634       -0.00000        0.42277
