25
hex.log	Energy: -1693895.4871906
As         2.13018        0.05354        0.00005
O          2.00003       -1.02288       -1.37710
H          2.86469       -1.10550       -1.78805
O          1.99997       -1.02300        1.37710
H          2.86461       -1.10566        1.78807
O          3.50361        0.89841        0.00011
C          0.41889        0.91523        0.00005
H          0.41166        1.55765        0.88124
H          0.41170        1.55773       -0.88109
C         -0.75725       -0.05787       -0.00002
H         -0.69458       -0.70633       -0.87571
H         -0.69461       -0.70640        0.87562
C         -2.09483        0.67438       -0.00001
H         -2.15062        1.32842        0.87560
H         -2.15059        1.32850       -0.87557
C         -3.28733       -0.27351       -0.00008
H         -3.22892       -0.92844       -0.87494
H         -3.22896       -0.92851        0.87473
C         -4.62973        0.44778       -0.00007
H         -4.68586        1.10230       -0.87436
H         -4.68590        1.10221        0.87428
C         -5.81592       -0.50771       -0.00015
H         -5.79862       -1.15223        0.88058
H         -6.76314        0.03167       -0.00015
H         -5.79857       -1.15215       -0.88094
