22
pent.log	Energy: -1669224.4026433
As        -1.64033        0.20025        0.00000
O         -1.64033       -0.88397        1.37714
H         -2.50873       -0.86209        1.78794
O         -1.64033       -0.88397       -1.37714
H         -2.50873       -0.86209       -1.78794
O         -2.90227        1.20397        0.00000
C          0.16201        0.85044        0.00000
H          0.24613        1.48741       -0.88116
H          0.24613        1.48741        0.88116
C          1.21290       -0.25666        0.00000
H          1.07284       -0.89297        0.87570
H          1.07284       -0.89297       -0.87570
C          2.62841        0.30996        0.00000
H          2.76302        0.95273       -0.87557
H          2.76302        0.95273        0.87557
C          3.69963       -0.77400        0.00000
H          3.56049       -1.41530        0.87427
H          3.56049       -1.41530       -0.87427
C          5.11297       -0.20697        0.00000
H          5.28551        0.41391       -0.88083
H          5.28551        0.41391        0.88083
H          5.86004       -1.00041        0.00000
