16
pr.log	Energy: -1619882.1080656
As        -0.60864        0.48462        0.00000
O         -1.16871       -0.44357        1.37708
H         -1.90187        0.02258        1.78760
O         -1.16871       -0.44357       -1.37708
H         -1.90187        0.02258       -1.78760
O         -1.16871        1.99654        0.00000
C          1.27032        0.10803        0.00000
H          1.67245        0.60936       -0.88114
H          1.67245        0.60936        0.88114
C          1.59791       -1.38387       -0.00000
H          1.14777       -1.85334        0.87515
H          1.14777       -1.85334       -0.87515
C          3.10317       -1.62066        0.00000
H          3.57051       -1.17960       -0.88171
H          3.57051       -1.17960        0.88171
H          3.32797       -2.68668       -0.00000
