13
2cl_et.log	Energy: -1883622.9863689
As         1.06670        0.01178        0.08006
O          1.20147        1.00586       -1.35319
H          1.80628        1.73351       -1.18436
O          1.98976       -1.41918       -0.30686
H          2.78194       -1.44215        0.23727
O          1.55588        0.75677        1.42250
C         -0.73684       -0.63261       -0.08741
C         -1.73310        0.48874        0.12169
H         -0.85560       -1.41840        0.65648
H         -0.82474       -1.07364       -1.07906
H         -1.63433        0.93364        1.10769
H         -1.62871        1.26151       -0.63406
Cl        -3.41195       -0.13338       -0.00301
