16
2cl_pr.log	Energy: -1908295.9111191
As        -1.09478       -0.03901        0.09457
O         -2.30173       -1.09305       -0.59304
H         -3.16963       -0.89457       -0.23231
O         -1.29414        1.36362       -0.92810
H         -0.99300        2.14443       -0.45479
O         -1.23093        0.27322        1.66918
C          0.50031       -0.95406       -0.48499
C          1.73410       -0.51863        0.28674
H          0.61547       -0.79746       -1.55646
H          0.31149       -2.01336       -0.30565
C          2.94729       -1.36323       -0.04313
H          1.52879       -0.53334        1.35458
H          2.75026       -2.40153        0.22833
H          3.17313       -1.31943       -1.10825
Cl         2.09515        1.22285       -0.07613
H          3.81791       -1.02076        0.51192
