20
2me_phe.log	Energy: -1715521.6547554
As         1.26720       -0.21737       -0.00000
O          1.71908        0.78128        1.36620
H          2.47473        0.37728        1.80187
O          1.71908        0.78134       -1.36614
H          2.47470        0.37735       -1.80186
O          2.00849       -1.64977       -0.00004
C         -0.63961       -0.20271       -0.00000
C         -1.40349        0.96884        0.00001
C         -1.22799       -1.46092       -0.00001
C         -2.78521        0.82236        0.00001
C         -2.60843       -1.57630       -0.00001
H         -0.59871       -2.34157       -0.00001
C         -3.38281       -0.42946        0.00001
H         -3.40536        1.70938        0.00001
H         -3.07072       -2.55315       -0.00000
H         -4.46185       -0.50508        0.00001
C         -0.77944        2.33565       -0.00001
H         -0.14849        2.47618        0.87788
H         -0.14884        2.47632       -0.87814
H         -1.54456        3.10893        0.00020
