19
2nh2_phe.log	Energy: -1725590.8753030
As         1.27120       -0.21553       -0.02433
O          1.78048        0.49158        1.49645
H          2.35546       -0.13918        1.93876
O          1.65573        1.09822       -1.12843
H          2.59462        1.10872       -1.32994
O          2.02632       -1.60898       -0.31337
C         -0.62368       -0.19928       -0.04260
C         -1.38994        0.97650        0.00968
C         -1.22927       -1.45305       -0.07050
C         -2.78203        0.83253        0.05667
C         -2.60394       -1.57126       -0.02946
H         -0.60132       -2.33312       -0.12689
C         -3.37091       -0.41456        0.04029
H         -3.39881        1.72115        0.10265
H         -3.07095       -2.54465       -0.05115
H         -4.44993       -0.48559        0.07536
N         -0.81945        2.22549        0.06108
H          0.09364        2.33643       -0.34962
H         -1.43792        2.99831       -0.10569
