19
2no2_phe.log	Energy: -1819174.8072286
As         1.45544       -0.20516       -0.00009
O          1.81316        0.76906        1.39593
H          2.53700        0.33204        1.85642
O          1.81264        0.76663       -1.39781
H          2.54021        0.33229       -1.85492
O          2.31148       -1.57668        0.00143
C         -0.43923       -0.56526       -0.00005
C         -1.49763        0.33424       -0.00013
C         -0.73213       -1.92281        0.00017
C         -2.81212       -0.08673       -0.00013
C         -2.04904       -2.36016        0.00019
H          0.08852       -2.62810        0.00028
C         -3.08631       -1.44480        0.00001
H         -3.59958        0.65051       -0.00018
H         -2.25873       -3.42048        0.00034
H         -4.11311       -1.78161        0.00002
N         -1.24502        1.78682       -0.00004
O         -2.20096        2.52857       -0.00008
O         -0.08755        2.14380        0.00062
